/*--------------------------------*- C++ -*----------------------------------*\
| =========                 |                                                 |
| \\      /  F ield         | OpenFOAM: The Open Source CFD Toolbox           |
|  \\    /   O peration     | Version:  2.3.0                                 |
|   \\  /    A nd           | Web:      www.OpenFOAM.org                      |
|    \\/     M anipulation  |                                                 |
\*---------------------------------------------------------------------------*/
FoamFile
{
    version     2.0;
    format      ascii;
    class       volScalarField;
    location    "0";
    object      omega;
}
// * * * * * * * * * * * * * * * * * * * * * * * * * * * * * * * * * * * * * //

dimensions      [0 0 -1 0 0 0 0];

 internalField   uniform 1000;

boundaryField
{
      inlet
      {
        type            cyclic;
      }
    
       outlet
      {
       type             cyclic;
      }
    
       top 
      {
        type            symmetryPlane;
      } 

       bottom
      {

        type            omegaWallFunction;
        value           $internalField;
    }

    "(front|back)"
    {
        type            empty;
    }
}


// ************************************************************************* //
