/*--------------------------------*- C++ -*----------------------------------*\
  =========                 |
  \\      /  F ield         | OpenFOAM: The Open Source CFD Toolbox
   \\    /   O peration     | Website:  https://openfoam.org
    \\  /    A nd           | Version:  6
     \\/     M anipulation  |
\*---------------------------------------------------------------------------*/
FoamFile
{
    version     2.0;
    format      ascii;
    class       polyBoundaryMesh;
    location    "constant/polyMesh";
    object      boundary;
}
// * * * * * * * * * * * * * * * * * * * * * * * * * * * * * * * * * * * * * //

6
(
    freeStream
    {
        type            symmetry;
        inGroups        1(symmetry);
        nFaces          100;
        startFace       31740;
    }
    bottomWall
    {
        type            wall;
        inGroups        1(wall);
        nFaces          100;
        startFace       31840;
    }
    left
    {
        type            cyclic;
        inGroups        1(cyclic);
        nFaces          160;
        startFace       31940;
        matchTolerance  0.0001;
        transform       unknown;
        neighbourPatch  right;
    }
    right
    {
        type            cyclic;
        inGroups        1(cyclic);
        nFaces          160;
        startFace       32100;
        matchTolerance  0.0001;
        transform       unknown;
        neighbourPatch  left;
    }
    front
    {
        type            empty;
        inGroups        1(empty);
        nFaces          16000;
        startFace       32260;
    }
    back
    {
        type            empty;
        inGroups        1(empty);
        nFaces          16000;
        startFace       48260;
    }
)

// ************************************************************************* //
